/*--------------------------------*- C++ -*----------------------------------*\
  =========                 |
  \\      /  F ield         | OpenFOAM: The Open Source CFD Toolbox
   \\    /   O peration     | Website:  https://openfoam.org
    \\  /    A nd           | Version:  13
     \\/     M anipulation  |
\*---------------------------------------------------------------------------*/
FoamFile
{
    format      ascii;
    class       volScalarField;
    object      omega;
}
// * * * * * * * * * * * * * * * * * * * * * * * * * * * * * * * * * * * * * //

omegaInlet      1.0;

dimensions      [0 0 -1 0 0 0 0];

internalField   uniform $omegaInlet;

boundaryField
{
    INLET
    {
        type            fixedValue;
        value           uniform $omegaInlet;
    }

    OUTLET
    {
        type            inletOutlet;
        inletValue      uniform $omegaInlet;
        value           uniform $omegaInlet;
    }

    WALL
    {
        type            omegaWallFunction;
        value           uniform $omegaInlet;
    }

    PELEMENT
    {
        type            omegaWallFunction;
        value           $internalField;
    }

    NELEMENT
    {
        type            omegaWallFunction;
        value           $internalField;
    }

    frontAndBackPlanes
    {
        type            empty;
    }

    #includeEtc "caseDicts/setConstraintTypes"
}

// ************************************************************************* //
