/*--------------------------------*- C++ -*----------------------------------*\
  =========                 |
  \\      /  F ield         | OpenFOAM: The Open Source CFD Toolbox
   \\    /   O peration     | Website:  https://openfoam.org
    \\  /    A nd           | Version:  13
     \\/     M anipulation  |
\*---------------------------------------------------------------------------*/
FoamFile
{
    format      ascii;
    class       dictionary;
    location    "constant";
    object      physicalProperties;
}
// * * * * * * * * * * * * * * * * * * * * * * * * * * * * * * * * * * * * * //

viscosityModel  constant;

rho             rho      [ 1 -3 0 0 0 0 0 ]   1.225;

nu              nu       [ 0 2 -1 0 0 0 0 ]   8.58e-06;

epsilon0        epsilon0 [ -1 -3 4 0 0 2 0 ]  8.85419e-12;

eCharge         eCharge  [ 0 0 1 0 0 1 0 ]    1.602e-19;

// Prandtl number for air
Pr              Pr       [ 0 0 0 0 0 0 0 ] 0.71;
// turbulent Prandtl number for air
Prt             Prt      [ 0 0 0 0 0 0 0 ] 0.85;

Pref            Pref     [ 1 -1 -2 0 0 0 0 ]  89875;

RH              RH       [ 0 0 0 0 0 0 0 ]    0.5;

// mobility - dimArea / dimVoltage / dimTime
mu_e0           mu_e0    [ 0 -1 0 0 0 1 0 ] 437.43;   // 437.43 (:-> D 0.01) old 5e-3(:->D 0.01)
mu_N2p0         mu_N2p0  [ 0 -1 0 0 0 1 0 ] 13.998;   // 13.998 (:-> D 0.00032) old 5e-5(:->D 0.0001) -> 1.6e-4(:->D ?)
mu_O2m0         mu_O2m0  [ 0 -1 0 0 0 1 0 ] 2.625;    // 2.625 (:-> D 6e-05) old 3e-5(:->D 6e-05)  -> 1e-4(:->D ?)

beta            beta     [ 0 0 0 0 0 0 0 ] 0.6;     // 0.5 -> 0.8

// ionisation - for Townsend ionisation
// dimless / dimLength
A               A        [ 0 -1 0 0 0 0 0 ] 1e5;    // ~ air 1e5
// dimVoltage / dimLength
B               B        [ 1 1 -3 0 0 -1 0 ] 6e6;   // ~ air 3e7

// emission coefficient (for boundary condition)
gamma           gamma    [ 0 0 0 0 0 0 0 ] 0.1;    // 0.01 – 0.2 air discharges

// for Diffusion coefficients - dimTemperature
Te              Te       [ 1 2 -3 0 0 -1 0 ] 2.0;   // 2 eV

// for Scharfetter - Gummel flux - dimEnergy/dimTemperature
kB              kB       [ 1 2 -2 -1 0 0 0 ] 1.380649e-23;

// recombination (kei * ne * nN2p) -> dimless / dimVolume / dimTime for recombination e- + N2+ -> N2
kei             kei      [ 0 3 -1 0 0 0 0 ] 2e-12;  // 1e-13 -> 1e-12

// ************************************************************************* //
